LAMMPS (7 Aug 2019)
#initialization
#echo                    screen
units                   metal
boundary                p p p
atom_style              charge

#simulation box definition
read_data               Cr2O3-Fe.data
  orthogonal box = (0 0 0) to (28.1546 26.8188 57.6414)
  reading atoms ...
  3800 atoms

set                     type 1 charge 3
  720 settings made for charge
set                     type 2 charge 0
  2000 settings made for charge
set                     type 3 charge -2
  1080 settings made for charge

#potential
kspace_style            pppm 1.0e-4
pair_style              hybrid/overlay coul/long 10.0 buck 10.0 buck 10.0 eam/cd tersoff/zbl
pair_coeff              * * coul/long
pair_coeff              1 3 buck 1 2362.905 0.270628 0.0
pair_coeff              3 3 buck 2 91.55955 0.547148 32.32
pair_coeff              * * eam/cd FeCr.cdeam Cr Fe NULL
Reading potential file FeCr.cdeam with DATE: 2009-11-05
Reading potential file FeCr.cdeam with DATE: 2009-11-05
pair_coeff              * * tersoff/zbl Fe-O.tersoff.zbl NULL Fe O
Reading potential file Fe-O.tersoff.zbl with DATE: 2018-05-16

#setting
neighbor                5.0 bin
timestep                0.001
#run                     0
#variable                E equal pe #定义变量E为系统总势能
#print "The system energy now is $E"

thermo                  1000
min_style               sd

#thermo_style            custom step temp pe ke # 观察温度、势能、动能变化
#thermo                  100 # 每100步输出一次

minimize                1.0e-12 1.0e-12 1000000 1000000
PPPM initialization ...
  G vector (1/distance) = 0.299114
  grid = 24 24 40
  stencil order = 5
  estimated absolute RMS force accuracy = 0.00140707
  estimated relative force accuracy = 9.77155e-05
  3d grid and FFT values/proc = 53361 23040
  update every 1 steps, delay 0 steps, check yes
Step Temp E_pair E_mol TotEng Press
0            0   -71944.391            0   -71944.391   -133223.61
Loop time of 826.181 on 1 procs for 2171 steps with 3800 atoms

Minimization stats:
  Stopping criterion = energy tolerance
  Energy initial, next-to-last, final =
  Force two-norm initial, final = 187.235 2.88058
  Force max component initial, final = 10.3389 0.72866
  Final line search alpha, max atom move = 0.00855863 0.00623633
  Iterations, force evaluations = 2171 4575

print "####################能量最小化结束#################"
####################能量最小化结束#################

# 300K跑平衡
velocity all create 300 4928459 dist gaussian # 根据温度初始化速度
fix                     NVT all nvt temp 300 300 0.1

run                     10000
PPPM initialization ...
  G vector (1/distance) = 0.299114
  grid = 24 24 40
  stencil order = 5
  estimated absolute RMS force accuracy = 0.00140707
  estimated relative force accuracy = 9.77155e-05
  3d grid and FFT values/proc = 53361 23040
  update every 1 steps, delay 10 steps, check yes
Step Temp E_pair E_mol TotEng Press
2171          300   -73580.909            0   -73433.591    54438.305
Averages over the last 6 of 12 rows, steps 8000 to 12171:
Temp E_pair E_mol TotEng Press
299.339 -74662.4 0 -74515.4 44113.4
Loop time of 1658.39 on 1 procs for 10000 steps with 3800 atoms

# restart
write_restart		re-min-nvt.restart
PPPM initialization ...
  G vector (1/distance) = 0.299114
  grid = 24 24 40
  stencil order = 5
  estimated absolute RMS force accuracy = 0.00140707
  estimated relative force accuracy = 9.77155e-05
  3d grid and FFT values/proc = 53361 23040
  update every 1 steps, delay 10 steps, check yes

reset_timestep		0

compute                 msd all msd com yes
variable                twopoint equal c_msd[4]/4/(step*dt+1.0e-6)
fix                     9 all vector 10 c_msd[4]
variable                fitslope equal slope(f_9)/4/(10*dt)

thermo_style            custom step temp c_msd[4] v_twopoint v_fitslope
thermo			1000
run                     100000
PPPM initialization ...
  G vector (1/distance) = 0.299114
  grid = 24 24 40
  stencil order = 5
  estimated absolute RMS force accuracy = 0.00140707
  estimated relative force accuracy = 9.77155e-05
  3d grid and FFT values/proc = 53361 23040
  update every 1 steps, delay 10 steps, check yes
Step Temp c_msd[4] v_twopoint v_fitslope
0    300.49621 2.0194839e-28 5.0487098e-23      2.5e+21
Averages over the last 51 of 101 rows, steps 50000 to 100000:
Temp c_msd[4] v_twopoint v_fitslope
300.712 0.488924 0.00166772 0.00115777
Loop time of 16189.9 on 1 procs for 100000 steps with 3800 atoms
